The revolutionary new AeroDynamic Pro hair dryer utilizes patented ionic technology to minimize frizz and static, resulting in smoother, shinier hair while also drastically reducing drying time by up to 50% compared to conventional hair dryers, incorporating a powerful yet whisper-quiet motor for a more pleasant user experience, featuring three heat settings and two speed settings for customized styling, complete with a cool shot button to lock in your desired look, all while boasting a sleek, ergonomic design for comfortable handling and a lightweight construction that minimizes wrist strain during extended use, further enhanced by a concentrator nozzle for precision styling and a diffuser attachment for voluminous curls, available in a range of stylish colors to match any bathroom decor, complemented by a generous two-year warranty for peace of mind, making the AeroDynamic Pro the ultimate choice for achieving salon-quality results at home, eliminating the need for expensive and time-consuming trips to the salon, empowering users to effortlessly create a variety of stunning hairstyles with ease and confidence, offering a superior drying experience that is both efficient and gentle on the hair, promoting healthy, vibrant-looking locks, and setting a new standard for hair care technology, designed for the modern individual who values both performance and style.

The innovative SmartHome Security System provides comprehensive protection for your home and family, featuring advanced motion sensors that detect any unauthorized movement, instantly triggering an alarm and sending real-time notifications to your smartphone, coupled with high-definition surveillance cameras that capture clear video footage, allowing you to monitor your property remotely from anywhere in the world, offering two-way audio communication so you can speak to anyone at your door, even when you're not home, including a robust siren that deters intruders and alerts neighbors, integrated with smart home automation capabilities that allow you to control lights, locks, and thermostats remotely, enhancing both security and energy efficiency, backed by 24/7 professional monitoring for added peace of mind, ensuring that help is always available in case of an emergency, utilizing encrypted communication protocols to safeguard your privacy and protect against hacking attempts, offering customizable settings to tailor the system to your specific needs, complete with a user-friendly mobile app for easy control and management, designed for seamless integration with other smart home devices, providing a cohesive and intelligent home security solution, empowering you to protect your loved ones and valuables with confidence, knowing that your home is always under watchful eye, regardless of your location, delivering unparalleled security and convenience in a sleek and modern package.

The all-new EcoDrive Hybrid vehicle combines exceptional fuel efficiency with impressive performance, boasting a cutting-edge hybrid powertrain that seamlessly integrates a gasoline engine with an electric motor, delivering both power and economy, achieving an astounding 50 miles per gallon in city driving and 45 miles per gallon on the highway, significantly reducing your carbon footprint and saving you money on fuel costs, featuring regenerative braking technology that captures energy normally lost during braking and converts it into electricity, further enhancing efficiency, equipped with a spacious and comfortable interior crafted from premium materials, offering a luxurious driving experience, complete with advanced safety features such as lane departure warning, blind spot monitoring, and adaptive cruise control, providing peace of mind on every journey, incorporating a state-of-the-art infotainment system with a large touchscreen display, offering seamless integration with your smartphone, providing access to navigation, music, and hands-free communication, available in a range of stylish colors and trims to suit your individual taste, backed by a comprehensive warranty for added peace of mind, making the EcoDrive Hybrid the perfect choice for environmentally conscious drivers who demand both performance and efficiency, setting a new standard for hybrid vehicles, combining innovation, style, and sustainability in one exceptional package.

The ProChef Culinary Blender offers unparalleled power and versatility in the kitchen, featuring a high-performance motor that effortlessly crushes ice, blends smoothies, and purees soups, creating restaurant-quality results in the comfort of your home, equipped with a durable stainless steel blade assembly that can handle even the toughest ingredients, ensuring long-lasting performance, boasting multiple speed settings and pre-programmed functions for precise control and convenience, allowing you to create a wide variety of culinary creations with ease, complete with a large-capacity container that can accommodate large batches of ingredients, perfect for entertaining or meal prepping, designed with a sleek and compact footprint that won't clutter your countertop, adding a touch of modern elegance to your kitchen, easy to clean and maintain, thanks to its dishwasher-safe components, further enhanced by a comprehensive recipe book that provides inspiration and guidance, empowering you to explore new culinary horizons, making the ProChef Culinary Blender an indispensable tool for any aspiring chef or home cook, delivering professional-grade performance and unmatched versatility in a stylish and user-friendly package.


The CloudConnect Wireless Headphones deliver exceptional audio quality and unparalleled freedom, featuring advanced noise-canceling technology that effectively blocks out distractions, allowing you to immerse yourself in your music, whether you're commuting, working, or exercising, boasting crystal-clear audio reproduction and deep, rich bass for a truly immersive listening experience, equipped with Bluetooth 5.0 for a stable and seamless wireless connection, offering extended range and low latency, providing up to 20 hours of playtime on a single charge, ensuring you can enjoy your music all day long, designed with a comfortable and ergonomic fit that stays securely in place, even during strenuous activity, complete with intuitive touch controls for easy playback and volume adjustment, available in a range of stylish colors to match your personal style, backed by a one-year warranty for peace of mind, making the CloudConnect Wireless Headphones the perfect choice for music lovers on the go, delivering exceptional sound quality and unparalleled convenience in a sleek and modern design.


The OrthoSleep Memory Foam Mattress provides superior comfort and support for a restful night's sleep, featuring a unique blend of memory foam and supportive base foam, conforming to your body's contours and relieving pressure points, promoting proper spinal alignment and reducing tossing and turning, designed with a breathable cover that wicks away moisture and regulates temperature, keeping you cool and comfortable throughout the night, hypoallergenic and dust mite resistant, making it a healthy choice for allergy sufferers, available in a range of sizes to fit any bed frame, backed by a 10-year warranty for peace of mind, ensuring long-lasting comfort and support, making the OrthoSleep Memory Foam Mattress the perfect investment for a healthier and more restful sleep.


The QuickClean Robotic Vacuum effortlessly cleans your floors, freeing up your time for more important things, featuring intelligent navigation technology that maps your home and cleans every corner, avoiding obstacles and stairs, equipped with a powerful suction system that picks up dirt, dust, and pet hair from all floor types, including carpets, hardwood, and tile, boasting a long-lasting battery that provides up to 90 minutes of cleaning time on a single charge, automatically returning to its charging dock when it's low on power, controlled via a user-friendly mobile app, allowing you to schedule cleaning sessions and monitor its progress remotely, designed with a slim profile that allows it to clean under furniture and in tight spaces, making the QuickClean Robotic Vacuum the perfect solution for busy individuals who want a clean home without the hassle.


The PhotoPro Digital Camera captures stunning images and videos with exceptional clarity, featuring a high-resolution sensor and advanced image processing technology, delivering professional-quality results, equipped with a versatile zoom lens that allows you to capture both wide-angle shots and detailed close-ups, offering a variety of shooting modes and creative filters to enhance your photography, including a built-in Wi-Fi and Bluetooth connectivity for easy sharing and remote control, designed with an ergonomic grip and intuitive controls for comfortable handling, making the PhotoPro Digital Camera the perfect choice for aspiring photographers and casual users alike.

The SecureVault Online Backup Service protects your valuable data from loss or theft, featuring secure cloud storage and automatic backups, ensuring your files are always safe and accessible, offering unlimited storage capacity and military-grade encryption, protecting your privacy and preventing unauthorized access, compatible with all major operating systems and devices, allowing you to access your files from anywhere in the world, providing easy file recovery and version history, allowing you to restore previous versions of your files in case of accidental deletion or modification, making the SecureVault Online Backup Service the perfect solution for individuals and businesses looking for a reliable and secure data backup solution.

The FitTrack Fitness Tracker monitors your activity levels and provides valuable insights into your health, featuring built-in sensors that track steps, distance, calories burned, and sleep patterns, offering personalized feedback and motivation to help you reach your fitness goals, equipped with a heart rate monitor and GPS tracking for accurate data capture, syncing wirelessly with your smartphone and providing detailed reports and analysis, waterproof and durable, designed for all-day wear, making the FitTrack Fitness Tracker the perfect companion for anyone looking to improve their health and fitness.
