The revolutionary new Xyloscope 5000 boasts an unprecedented combination of cutting-edge optical technology, including a multi-faceted refractive lens system with chromatic aberration correction and a diffraction-limited point spread function for unparalleled image clarity, coupled with a highly sensitive, low-noise CMOS sensor capable of capturing images at a stunning 16-megapixel resolution with exceptional dynamic range and minimal noise, even in low-light conditions, alongside a robust, ergonomically designed chassis crafted from high-grade aluminum alloy for maximum durability and stability, featuring intuitive controls and a vibrant, high-resolution touchscreen display for effortless navigation and parameter adjustment, further enhanced by advanced software functionalities such as real-time image processing, automated object recognition, and customizable measurement tools, all powered by a state-of-the-art quad-core processor and integrated graphics processing unit for lightning-fast performance and seamless operation, ensuring that the Xyloscope 5000 delivers unparalleled performance and versatility for a wide range of scientific, industrial, and educational applications, from microscopic analysis of biological samples to materials characterization and quality control, making it the ideal instrument for researchers, engineers, and educators alike, complete with a comprehensive suite of accessories, including various objective lenses, illumination sources, and sample holders, to cater to diverse experimental needs, further complemented by a dedicated software development kit (SDK) that empowers users to create custom applications and integrate the Xyloscope 5000 into existing workflows, ultimately offering a comprehensive and powerful imaging solution that sets a new standard for performance, versatility, and ease of use.
The innovative AeroDynamic Pro Cycling Helmet integrates advanced aerodynamics with superior safety features, incorporating a meticulously engineered ventilation system that channels airflow over the scalp to minimize drag and maximize cooling efficiency, while simultaneously employing a high-density EPS foam liner with a multi-directional impact protection system (MIPS) to effectively absorb and dissipate impact forces during a crash, protecting the rider's head from rotational and linear acceleration, further enhancing safety with strategically placed reflective elements for increased visibility in low-light conditions, alongside a lightweight, aerodynamically optimized shell constructed from durable polycarbonate material, designed to minimize wind resistance and maximize speed, featuring an adjustable retention system with a micro-dial for a precise and comfortable fit, customizable with interchangeable padding for optimal comfort and hygiene, and available in a range of sizes and colors to suit individual preferences, ensuring optimal performance and safety for competitive cyclists and enthusiasts alike, rigorously tested in wind tunnels and impact labs to meet and exceed industry safety standards, guaranteeing unparalleled protection and performance, making the AeroDynamic Pro Cycling Helmet the ultimate choice for riders seeking the perfect balance of speed, safety, and comfort.
The groundbreaking QuantumLeap Quantum Computer harnesses the power of quantum entanglement and superposition to achieve unprecedented computational capabilities, utilizing a novel architecture based on superconducting qubits operating at ultra-low temperatures, enabling the execution of complex algorithms and simulations far beyond the reach of classical computers, with applications ranging from drug discovery and materials science to financial modeling and artificial intelligence, featuring a user-friendly interface and cloud-based access for seamless integration into existing research and development workflows, further enhanced by a dedicated software development kit (SDK) and a comprehensive library of quantum algorithms, empowering researchers and developers to explore the vast potential of quantum computing and accelerate scientific breakthroughs, supported by a team of world-class experts in quantum physics, computer science, and engineering, committed to pushing the boundaries of quantum computing and unlocking its transformative potential for society, offering unparalleled performance and scalability for tackling some of the most challenging computational problems facing humanity, making the QuantumLeap Quantum Computer a revolutionary tool for advancing scientific discovery and technological innovation.
The cutting-edge SonoWave 3000 Ultrasonic Cleaning System delivers unparalleled cleaning performance and efficiency, utilizing advanced ultrasonic transducer technology to generate high-frequency sound waves that create cavitation bubbles in the cleaning solution, effectively removing contaminants and debris from even the most complex and delicate surfaces, featuring a spacious stainless steel cleaning tank with a capacity of 10 liters and a user-friendly digital control panel with adjustable temperature and timer settings, ensuring precise and repeatable cleaning results, further enhanced by a built-in degassing function that removes dissolved gases from the cleaning solution, optimizing cavitation efficiency and preventing damage to sensitive components, alongside a range of optional accessories, including specialized baskets and trays for accommodating various part sizes and shapes, making it the ideal solution for a wide range of applications, from medical device cleaning and jewelry restoration to industrial parts washing and electronics manufacturing, offering unparalleled cleaning power and versatility for demanding cleaning tasks.
The innovative EcoFlow Portable Power Station provides reliable and sustainable power for on-the-go adventures and emergency preparedness, featuring a high-capacity lithium-ion battery with a 1000Wh capacity and multiple output ports, including AC outlets, USB ports, and a 12V DC car charger, enabling the simultaneous powering of various devices such as laptops, smartphones, lights, and small appliances, further enhanced by its fast-charging capability, allowing for a full recharge in just a few hours using AC power, solar panels, or a car charger, alongside its lightweight and compact design, making it easy to transport and store, ideal for camping, road trips, outdoor events, and power outages, featuring a built-in LCD screen that displays real-time information on battery level, power output, and input, providing intuitive control and monitoring, complete with a comprehensive suite of safety features, including overcharge protection, short-circuit protection, and temperature control, ensuring safe and reliable operation in various environments, making the EcoFlow Portable Power Station the ultimate power solution for adventure seekers and emergency preparedness enthusiasts.
The state-of-the-art HoloLens Pro Augmented Reality Headset delivers immersive and interactive experiences, featuring advanced holographic projection technology that overlays digital content onto the real world, creating engaging and informative augmented reality experiences for various applications, from education and training to design and entertainment, further enhanced by its high-resolution display and spatial sound capabilities, providing realistic and immersive visuals and audio, alongside its intuitive hand tracking and gesture recognition functionalities, enabling users to interact with digital content seamlessly and naturally, complete with a comfortable and adjustable head strap and a lightweight design, ensuring comfortable extended use, featuring integrated sensors and cameras that capture real-world data, enabling real-time interaction and environmental awareness, further empowered by a powerful processor and advanced software functionalities, enabling the creation of complex and sophisticated augmented reality applications, making the HoloLens Pro Augmented Reality Headset a groundbreaking tool for transforming how we learn, work, and interact with the world around us.
The innovative TerraScout Agricultural Drone provides precision aerial imagery and data analytics for optimized crop management, featuring high-resolution multispectral cameras that capture detailed images of crops, enabling the identification of stress, disease, and nutrient deficiencies, further enhanced by its advanced GPS and autonomous flight capabilities, enabling precise and efficient mapping of large agricultural areas, alongside its cloud-based data processing platform, providing farmers with actionable insights for informed decision-making, complete with a user-friendly interface and mobile app, allowing for easy access to data and remote control of the drone, featuring interchangeable camera modules for various applications, including thermal imaging and LiDAR scanning, enabling the collection of comprehensive data for various agricultural needs, further empowered by artificial intelligence algorithms that analyze the collected data, providing predictions and recommendations for optimized crop management practices, making the TerraScout Agricultural Drone a powerful tool for increasing crop yields and improving farm efficiency.
The revolutionary BioMetric Security System provides unparalleled security and access control, featuring advanced biometric authentication technology that utilizes fingerprint, facial recognition, and iris scanning for secure user identification, further enhanced by its multi-factor authentication capabilities, adding an extra layer of security by requiring multiple credentials for access, alongside its encrypted data storage and transmission, ensuring the confidentiality and integrity of sensitive information, complete with a user-friendly interface and customizable access control settings, allowing administrators to manage user permissions and access levels efficiently, featuring a robust and tamper-proof design, preventing unauthorized access and manipulation of the system, further empowered by its integration with existing security systems and infrastructure, enabling seamless implementation and centralized management of security protocols, making the BioMetric Security System a comprehensive and reliable solution for protecting valuable assets and information.
The cutting-edge Virtuoso 3D Printer enables rapid prototyping and additive manufacturing with exceptional precision, featuring a high-resolution printing head and a heated build platform that supports various materials, including plastics, resins, and metals, enabling the creation of complex and intricate designs with exceptional detail and accuracy, further enhanced by its intuitive software interface and cloud connectivity, allowing for seamless design upload and remote monitoring of the printing process, alongside its enclosed printing chamber and temperature control system, ensuring consistent printing conditions and optimal material adhesion, complete with a range of interchangeable nozzles and build plates for various printing needs, enabling the fabrication of parts with diverse geometries and material properties, further empowered by its open-source software and hardware architecture, allowing for customization and integration with existing workflows, making the Virtuoso 3D Printer a powerful tool for innovation and product development.
The advanced IntelliSense Smart Thermostat optimizes energy consumption and enhances comfort, featuring intelligent learning algorithms that adapt to user preferences and environmental conditions, automatically adjusting temperature settings for optimal energy efficiency and comfort, further enhanced by its remote control capabilities via a mobile app and voice control integration with smart home assistants, enabling convenient control and monitoring of temperature settings from anywhere, alongside its compatibility with various heating and cooling systems, ensuring seamless integration into existing home infrastructure, complete with a sleek and intuitive touchscreen display that provides real-time information on temperature, humidity, and energy usage, empowering users to monitor and manage their energy consumption effectively, featuring advanced sensors that detect occupancy and open windows, automatically adjusting temperature settings to prevent energy waste, further empowered by its integration with other smart home devices and services, enabling the creation of automated routines and personalized comfort experiences, making the IntelliSense Smart Thermostat a smart and efficient solution for optimizing home energy management and enhancing indoor comfort.
